Version,25.1;

SimulationControl,
    No,                       !- Do Zone Sizing Calculation
    No,                       !- Do System Sizing Calculation
    No,                       !- Do Plant Sizing Calculation
    Yes,                      !- Run Simulation for Weather File Run Periods
    No;                       !- Run Simulation for Sizing Periods

RunPeriod,
    Run Period 1,             !- Name
    6,                        !- Begin Month
    24,                       !- Begin Day of Month
    ,                         !- Begin Year
    6,                        !- End Month
    24,                       !- End Day of Month
    ,                         !- End Year
    Monday,                   !- Day of Week for Start Day
    Yes,                      !- Use Weather File Holidays and Special Days
    Yes,                      !- Use Weather File Daylight Saving Period
    No,                       !- Apply Weekend Holiday Rule
    Yes,                      !- Use Weather File Rain Indicators
    Yes;                      !- Use Weather File Snow Indicators

Site:Location,
    Test Location,            !- Name
    40.0,                     !- Latitude
    -75.0,                    !- Longitude
    -5.0,                     !- Time Zone
    200.0;                    !- Elevation

Building,
    Test Building,            !- Name
    0.0,                      !- North Axis
    Suburbs,                  !- Terrain
    0.04,                     !- Loads Convergence Tolerance Value
    0.4,                      !- Temperature Convergence Tolerance Value
    FullExterior,             !- Solar Distribution
    25,                       !- Maximum Number of Warmup Days
    6;                        !- Minimum Number of Warmup Days

Zone,
    TestZone;                 !- Name

Output:Variable,*,Zone Air Temperature,Hourly;
